<?xml version="1.0" encoding="UTF-8"?>

<!-- generated on 2025-09-22 13:03:00 by Eclipse SUMO netedit Version 1.24.0
<neteditConfiguration xmlns:xsi="http://www.w3.org/2001/XMLSchema-instance" xsi:noNamespaceSchemaLocation="http://sumo.dlr.de/xsd/neteditConfiguration.xsd">

    <input>
        <sumocfg-file value="C:\Users\sairo\Downloads\SUMO2Unity-main\SUMO2Unity-main\Scenario1\Sumo2Unity.sumocfg"/>
        <route-files value="C:\Users\sairo\Downloads\SUMO2Unity-main\SUMO2Unity-main\Scenario1\Sumo2Unity.rou.xml"/>
        <sumo-net-file value="C:\Users\sairo\Downloads\SUMO2Unity-main\SUMO2Unity-main\Scenario1\Sumo2Unity.net.xml"/>
    </input>

    <output>
        <output-file value="C:\Users\sairo\Downloads\SUMO2Unity-main\SUMO2Unity-main\Scenario1\Sumo2Unity.net.xml"/>
    </output>

    <processing>
        <geometry.min-radius.fix.railways value="false"/>
        <geometry.avoid-overlap value="false"/>
        <geometry.max-grade.fix value="false"/>
        <offset.disable-normalization value="true"/>
        <lefthand value="0"/>
    </processing>

    <junctions>
        <no-turnarounds value="true"/>
        <junctions.corner-detail value="5"/>
        <junctions.limit-turn-speed value="5.50"/>
        <rectangular-lane-cut value="0"/>
    </junctions>

    <pedestrian>
        <walkingareas value="0"/>
    </pedestrian>

</neteditConfiguration>
-->

<net version="1.20" junctionCornerDetail="5" limitTurnSpeed="5.50" avoidOverlap="0" xmlns:xsi="http://www.w3.org/2001/XMLSchema-instance" xsi:noNamespaceSchemaLocation="http://sumo.dlr.de/xsd/net_file.xsd">

    <location netOffset="0.00,0.00" convBoundary="-400.00,-200.00,400.00,200.00" origBoundary="-10000000000.00,-10000000000.00,10000000000.00,10000000000.00" projParameter="!"/>

    <edge id=":J0_0" function="internal">
        <lane id=":J0_0_0" index="0" speed="6.08" length="7.74" shape="-196.80,101.60 -198.90,101.30 -200.40,100.40 -201.30,98.90 -201.60,96.80"/>
    </edge>
    <edge id=":J0_1" function="internal">
        <lane id=":J0_1_0" index="0" speed="3.65" length="1.44" shape="-196.80,101.60 -198.00,100.80"/>
    </edge>
    <edge id=":J0_4" function="internal">
        <lane id=":J0_4_0" index="0" speed="3.65" length="3.23" shape="-198.00,100.80 -198.40,100.00 -198.00,99.20 -196.80,98.40"/>
    </edge>
    <edge id=":J0_2" function="internal">
        <lane id=":J0_2_0" index="0" speed="3.90" length="2.58" shape="-198.40,96.80 -198.30,97.50 -198.00,98.00 -197.50,98.30 -196.80,98.40"/>
    </edge>
    <edge id=":J0_3" function="internal">
        <lane id=":J0_3_0" index="0" speed="3.65" length="1.30" shape="-198.40,96.80 -199.12,97.88"/>
    </edge>
    <edge id=":J0_5" function="internal">
        <lane id=":J0_5_0" index="0" speed="3.65" length="3.37" shape="-199.12,97.88 -199.20,98.00 -200.00,98.40 -200.80,98.00 -201.60,96.80"/>
    </edge>
    <edge id=":J1_0" function="internal">
        <lane id=":J1_0_0" index="0" speed="13.89" length="14.40" shape="-92.80,101.60 -107.20,101.60"/>
    </edge>
    <edge id=":J1_1" function="internal">
        <lane id=":J1_1_0" index="0" speed="8.00" length="4.07" shape="-92.80,101.60 -96.65,101.05 -96.80,100.96"/>
    </edge>
    <edge id=":J1_2" function="internal">
        <lane id=":J1_2_0" index="0" speed="3.65" length="1.44" shape="-92.80,101.60 -94.00,100.80"/>
    </edge>
    <edge id=":J1_9" function="internal">
        <lane id=":J1_9_0" index="0" speed="8.00" length="10.13" shape="-96.80,100.96 -99.40,99.40 -101.05,96.65 -101.60,92.80"/>
    </edge>
    <edge id=":J1_10" function="internal">
        <lane id=":J1_10_0" index="0" speed="3.65" length="3.23" shape="-94.00,100.80 -94.40,100.00 -94.00,99.20 -92.80,98.40"/>
    </edge>
    <edge id=":J1_3" function="internal">
        <lane id=":J1_3_0" index="0" speed="6.51" length="9.03" shape="-98.40,92.80 -98.05,95.25 -97.00,97.00 -95.25,98.05 -92.80,98.40"/>
    </edge>
    <edge id=":J1_4" function="internal">
        <lane id=":J1_4_0" index="0" speed="8.00" length="14.19" shape="-98.40,92.80 -98.95,96.65 -100.60,99.40 -103.35,101.05 -107.20,101.60"/>
    </edge>
    <edge id=":J1_5" function="internal">
        <lane id=":J1_5_0" index="0" speed="3.65" length="1.44" shape="-98.40,92.80 -99.20,94.00"/>
    </edge>
    <edge id=":J1_11" function="internal">
        <lane id=":J1_11_0" index="0" speed="3.65" length="3.23" shape="-99.20,94.00 -100.00,94.40 -100.80,94.00 -101.60,92.80"/>
    </edge>
    <edge id=":J1_6" function="internal">
        <lane id=":J1_6_0" index="0" speed="6.51" length="9.03" shape="-107.20,98.40 -104.75,98.05 -103.00,97.00 -101.95,95.25 -101.60,92.80"/>
    </edge>
    <edge id=":J1_7" function="internal">
        <lane id=":J1_7_0" index="0" speed="13.89" length="14.40" shape="-107.20,98.40 -92.80,98.40"/>
    </edge>
    <edge id=":J1_8" function="internal">
        <lane id=":J1_8_0" index="0" speed="3.65" length="1.44" shape="-107.20,98.40 -106.00,99.20"/>
    </edge>
    <edge id=":J1_12" function="internal">
        <lane id=":J1_12_0" index="0" speed="3.65" length="3.23" shape="-106.00,99.20 -105.60,100.00 -106.00,100.80 -107.20,101.60"/>
    </edge>
    <edge id=":J12_0" function="internal">
        <lane id=":J12_0_0" index="0" speed="13.89" length="5.50" shape="-101.60,8.81 -101.84,7.28 -102.45,6.35 -103.25,5.45 -104.06,4.03"/>
    </edge>
    <edge id=":J12_1" function="internal">
        <lane id=":J12_1_0" index="0" speed="3.65" length="1.44" shape="-101.60,8.81 -100.80,7.61"/>
    </edge>
    <edge id=":J12_4" function="internal">
        <lane id=":J12_4_0" index="0" speed="3.65" length="3.23" shape="-100.80,7.61 -100.00,7.21 -99.20,7.61 -98.40,8.81"/>
    </edge>
    <edge id=":J12_2" function="internal">
        <lane id=":J12_2_0" index="0" speed="6.12" length="5.50" shape="-96.15,4.14 -97.14,4.78 -97.84,5.77 -98.26,7.12 -98.40,8.81"/>
    </edge>
    <edge id=":J12_3" function="internal">
        <lane id=":J12_3_0" index="0" speed="6.38" length="8.65" shape="-96.15,4.14 -99.17,5.18 -101.49,5.50 -103.12,5.12 -104.06,4.03"/>
    </edge>
    <edge id=":J13_0" function="internal">
        <lane id=":J13_0_0" index="0" speed="13.89" length="5.50" shape="-91.19,1.60 -92.72,1.84 -93.65,2.45 -94.55,3.25 -95.97,4.06"/>
    </edge>
    <edge id=":J13_1" function="internal">
        <lane id=":J13_1_0" index="0" speed="3.65" length="1.44" shape="-91.19,1.60 -92.39,0.80"/>
    </edge>
    <edge id=":J13_4" function="internal">
        <lane id=":J13_4_0" index="0" speed="3.65" length="3.23" shape="-92.39,0.80 -92.79,0.00 -92.39,-0.80 -91.19,-1.60"/>
    </edge>
    <edge id=":J13_2" function="internal">
        <lane id=":J13_2_0" index="0" speed="6.12" length="5.50" shape="-95.86,-3.85 -95.22,-2.86 -94.23,-2.16 -92.88,-1.74 -91.19,-1.60"/>
    </edge>
    <edge id=":J13_3" function="internal">
        <lane id=":J13_3_0" index="0" speed="6.38" length="8.65" shape="-95.86,-3.85 -94.82,-0.83 -94.50,1.49 -94.88,3.12 -95.97,4.06"/>
    </edge>
    <edge id=":J14_0" function="internal">
        <lane id=":J14_0_0" index="0" speed="13.89" length="5.50" shape="-98.40,-8.81 -98.16,-7.28 -97.55,-6.35 -96.75,-5.45 -95.94,-4.03"/>
    </edge>
    <edge id=":J14_1" function="internal">
        <lane id=":J14_1_0" index="0" speed="3.65" length="1.44" shape="-98.40,-8.81 -99.20,-7.61"/>
    </edge>
    <edge id=":J14_4" function="internal">
        <lane id=":J14_4_0" index="0" speed="3.65" length="3.23" shape="-99.20,-7.61 -100.00,-7.21 -100.80,-7.61 -101.60,-8.81"/>
    </edge>
    <edge id=":J14_2" function="internal">
        <lane id=":J14_2_0" index="0" speed="6.12" length="5.50" shape="-103.85,-4.14 -102.86,-4.78 -102.16,-5.77 -101.74,-7.12 -101.60,-8.81"/>
    </edge>
    <edge id=":J14_3" function="internal">
        <lane id=":J14_3_0" index="0" speed="6.38" length="8.65" shape="-103.85,-4.14 -100.83,-5.18 -98.51,-5.50 -96.88,-5.12 -95.94,-4.03"/>
    </edge>
    <edge id=":J15_0" function="internal">
        <lane id=":J15_0_0" index="0" speed="6.12" length="5.50" shape="-104.14,3.85 -104.78,2.86 -105.77,2.16 -107.12,1.74 -108.81,1.60"/>
    </edge>
    <edge id=":J15_1" function="internal">
        <lane id=":J15_1_0" index="0" speed="6.38" length="8.65" shape="-104.14,3.85 -105.18,0.83 -105.50,-1.49 -105.12,-3.12 -104.03,-4.06"/>
    </edge>
    <edge id=":J15_2" function="internal">
        <lane id=":J15_2_0" index="0" speed="13.89" length="5.50" shape="-108.81,-1.60 -107.28,-1.84 -106.35,-2.45 -105.45,-3.25 -104.03,-4.06"/>
    </edge>
    <edge id=":J15_3" function="internal">
        <lane id=":J15_3_0" index="0" speed="3.65" length="1.44" shape="-108.81,-1.60 -107.61,-0.80"/>
    </edge>
    <edge id=":J15_4" function="internal">
        <lane id=":J15_4_0" index="0" speed="3.65" length="3.23" shape="-107.61,-0.80 -107.21,0.00 -107.61,0.80 -108.81,1.60"/>
    </edge>
    <edge id=":J18_0" function="internal">
        <lane id=":J18_0_0" index="0" speed="13.89" length="0.10" shape="198.40,0.00 198.40,0.00"/>
    </edge>
    <edge id=":J18_1" function="internal">
        <lane id=":J18_1_0" index="0" speed="3.65" length="2.34" shape="198.40,0.00 199.20,-1.20 200.00,-1.60"/>
    </edge>
    <edge id=":J18_4" function="internal">
        <lane id=":J18_4_0" index="0" speed="3.65" length="2.34" shape="200.00,-1.60 200.80,-1.20 201.60,0.00"/>
    </edge>
    <edge id=":J18_2" function="internal">
        <lane id=":J18_2_0" index="0" speed="13.89" length="0.10" shape="201.60,0.00 201.60,0.00"/>
    </edge>
    <edge id=":J18_3" function="internal">
        <lane id=":J18_3_0" index="0" speed="3.65" length="2.34" shape="201.60,0.00 200.80,1.20 200.00,1.60"/>
    </edge>
    <edge id=":J18_5" function="internal">
        <lane id=":J18_5_0" index="0" speed="3.65" length="2.34" shape="200.00,1.60 199.20,1.20 198.40,0.00"/>
    </edge>
    <edge id=":J2_0" function="internal">
        <lane id=":J2_0_0" index="0" speed="13.89" length="14.40" shape="7.20,101.60 -7.20,101.60"/>
    </edge>
    <edge id=":J2_1" function="internal">
        <lane id=":J2_1_0" index="0" speed="8.00" length="4.07" shape="7.20,101.60 3.35,101.05 3.20,100.96"/>
    </edge>
    <edge id=":J2_2" function="internal">
        <lane id=":J2_2_0" index="0" speed="3.65" length="1.44" shape="7.20,101.60 6.00,100.80"/>
    </edge>
    <edge id=":J2_8" function="internal">
        <lane id=":J2_8_0" index="0" speed="8.00" length="10.13" shape="3.20,100.96 0.60,99.40 -1.05,96.65 -1.60,92.80"/>
    </edge>
    <edge id=":J2_9" function="internal">
        <lane id=":J2_9_0" index="0" speed="3.65" length="3.23" shape="6.00,100.80 5.60,100.00 6.00,99.20 7.20,98.40"/>
    </edge>
    <edge id=":J2_3" function="internal">
        <lane id=":J2_3_0" index="0" speed="6.51" length="9.03" shape="1.60,92.80 1.95,95.25 3.00,97.00 4.75,98.05 7.20,98.40"/>
    </edge>
    <edge id=":J2_4" function="internal">
        <lane id=":J2_4_0" index="0" speed="8.00" length="14.19" shape="1.60,92.80 1.05,96.65 -0.60,99.40 -3.35,101.05 -7.20,101.60"/>
    </edge>
    <edge id=":J2_5" function="internal">
        <lane id=":J2_5_0" index="0" speed="3.65" length="4.67" shape="1.60,92.80 0.80,94.00 0.00,94.40 -0.80,94.00 -1.60,92.80"/>
    </edge>
    <edge id=":J2_6" function="internal">
        <lane id=":J2_6_0" index="0" speed="13.89" length="14.40" shape="-7.20,98.40 7.20,98.40"/>
    </edge>
    <edge id=":J2_7" function="internal">
        <lane id=":J2_7_0" index="0" speed="3.65" length="1.44" shape="-7.20,98.40 -6.00,99.20"/>
    </edge>
    <edge id=":J2_10" function="internal">
        <lane id=":J2_10_0" index="0" speed="3.65" length="3.23" shape="-6.00,99.20 -5.60,100.00 -6.00,100.80 -7.20,101.60"/>
    </edge>
    <edge id=":J20_0" function="internal">
        <lane id=":J20_0_0" index="0" speed="13.89" length="0.10" shape="100.00,-98.40 100.00,-98.40"/>
    </edge>
    <edge id=":J20_1" function="internal">
        <lane id=":J20_1_0" index="0" speed="3.65" length="2.34" shape="100.00,-98.40 98.80,-99.20 98.40,-100.00"/>
    </edge>
    <edge id=":J20_4" function="internal">
        <lane id=":J20_4_0" index="0" speed="3.65" length="2.34" shape="98.40,-100.00 98.80,-100.80 100.00,-101.60"/>
    </edge>
    <edge id=":J20_2" function="internal">
        <lane id=":J20_2_0" index="0" speed="13.89" length="0.10" shape="100.00,-101.60 100.00,-101.60"/>
    </edge>
    <edge id=":J20_3" function="internal">
        <lane id=":J20_3_0" index="0" speed="3.65" length="2.34" shape="100.00,-101.60 101.20,-100.80 101.60,-100.00"/>
    </edge>
    <edge id=":J20_5" function="internal">
        <lane id=":J20_5_0" index="0" speed="3.65" length="2.34" shape="101.60,-100.00 101.20,-99.20 100.00,-98.40"/>
    </edge>
    <edge id=":J21_0" function="internal">
        <lane id=":J21_0_0" index="0" speed="6.51" length="9.03" shape="198.40,-92.80 198.05,-95.25 197.00,-97.00 195.25,-98.05 192.80,-98.40"/>
    </edge>
    <edge id=":J21_1" function="internal">
        <lane id=":J21_1_0" index="0" speed="8.00" length="14.19" shape="198.40,-92.80 198.95,-96.65 200.60,-99.40 203.35,-101.05 207.20,-101.60"/>
    </edge>
    <edge id=":J21_2" function="internal">
        <lane id=":J21_2_0" index="0" speed="3.65" length="1.44" shape="198.40,-92.80 199.20,-94.00"/>
    </edge>
    <edge id=":J21_9" function="internal">
        <lane id=":J21_9_0" index="0" speed="3.65" length="3.23" shape="199.20,-94.00 200.00,-94.40 200.80,-94.00 201.60,-92.80"/>
    </edge>
    <edge id=":J21_3" function="internal">
        <lane id=":J21_3_0" index="0" speed="6.51" length="9.03" shape="207.20,-98.40 204.75,-98.05 203.00,-97.00 201.95,-95.25 201.60,-92.80"/>
    </edge>
    <edge id=":J21_4" function="internal">
        <lane id=":J21_4_0" index="0" speed="13.89" length="14.40" shape="207.20,-98.40 192.80,-98.40"/>
    </edge>
    <edge id=":J21_5" function="internal">
        <lane id=":J21_5_0" index="0" speed="3.65" length="1.44" shape="207.20,-98.40 206.00,-99.20"/>
    </edge>
    <edge id=":J21_10" function="internal">
        <lane id=":J21_10_0" index="0" speed="3.65" length="3.23" shape="206.00,-99.20 205.60,-100.00 206.00,-100.80 207.20,-101.60"/>
    </edge>
    <edge id=":J21_6" function="internal">
        <lane id=":J21_6_0" index="0" speed="13.89" length="14.40" shape="192.80,-101.60 207.20,-101.60"/>
    </edge>
    <edge id=":J21_7" function="internal">
        <lane id=":J21_7_0" index="0" speed="8.00" length="4.07" shape="192.80,-101.60 196.65,-101.05 196.80,-100.96"/>
    </edge>
    <edge id=":J21_8" function="internal">
        <lane id=":J21_8_0" index="0" speed="3.65" length="1.44" shape="192.80,-101.60 194.00,-100.80"/>
    </edge>
    <edge id=":J21_11" function="internal">
        <lane id=":J21_11_0" index="0" speed="8.00" length="10.13" shape="196.80,-100.96 199.40,-99.40 201.05,-96.65 201.60,-92.80"/>
    </edge>
    <edge id=":J21_12" function="internal">
        <lane id=":J21_12_0" index="0" speed="3.65" length="3.23" shape="194.00,-100.80 194.40,-100.00 194.00,-99.20 192.80,-98.40"/>
    </edge>
    <edge id=":J22_0" function="internal">
        <lane id=":J22_0_0" index="0" speed="13.89" length="14.40" shape="307.20,-98.40 292.80,-98.40"/>
    </edge>
    <edge id=":J22_1" function="internal">
        <lane id=":J22_1_0" index="0" speed="8.00" length="4.07" shape="307.20,-98.40 303.35,-98.95 303.20,-99.04"/>
    </edge>
    <edge id=":J22_2" function="internal">
        <lane id=":J22_2_0" index="0" speed="3.65" length="1.44" shape="307.20,-98.40 306.00,-99.20"/>
    </edge>
    <edge id=":J22_9" function="internal">
        <lane id=":J22_9_0" index="0" speed="8.00" length="10.13" shape="303.20,-99.04 300.60,-100.60 298.95,-103.35 298.40,-107.20"/>
    </edge>
    <edge id=":J22_10" function="internal">
        <lane id=":J22_10_0" index="0" speed="3.65" length="3.23" shape="306.00,-99.20 305.60,-100.00 306.00,-100.80 307.20,-101.60"/>
    </edge>
    <edge id=":J22_3" function="internal">
        <lane id=":J22_3_0" index="0" speed="6.51" length="9.03" shape="301.60,-107.20 301.95,-104.75 303.00,-103.00 304.75,-101.95 307.20,-101.60"/>
    </edge>
    <edge id=":J22_4" function="internal">
        <lane id=":J22_4_0" index="0" speed="8.00" length="14.19" shape="301.60,-107.20 301.05,-103.35 299.40,-100.60 296.65,-98.95 292.80,-98.40"/>
    </edge>
    <edge id=":J22_5" function="internal">
        <lane id=":J22_5_0" index="0" speed="3.65" length="1.44" shape="301.60,-107.20 300.80,-106.00"/>
    </edge>
    <edge id=":J22_11" function="internal">
        <lane id=":J22_11_0" index="0" speed="3.65" length="3.23" shape="300.80,-106.00 300.00,-105.60 299.20,-106.00 298.40,-107.20"/>
    </edge>
    <edge id=":J22_6" function="internal">
        <lane id=":J22_6_0" index="0" speed="6.51" length="9.03" shape="292.80,-101.60 295.25,-101.95 297.00,-103.00 298.05,-104.75 298.40,-107.20"/>
    </edge>
    <edge id=":J22_7" function="internal">
        <lane id=":J22_7_0" index="0" speed="13.89" length="14.40" shape="292.80,-101.60 307.20,-101.60"/>
    </edge>
    <edge id=":J22_8" function="internal">
        <lane id=":J22_8_0" index="0" speed="3.65" length="1.44" shape="292.80,-101.60 294.00,-100.80"/>
    </edge>
    <edge id=":J22_12" function="internal">
        <lane id=":J22_12_0" index="0" speed="3.65" length="3.23" shape="294.00,-100.80 294.40,-100.00 294.00,-99.20 292.80,-98.40"/>
    </edge>
    <edge id=":J23_0" function="internal">
        <lane id=":J23_0_0" index="0" speed="13.89" length="0.10" shape="98.87,1.13 98.87,1.13"/>
    </edge>
    <edge id=":J23_1" function="internal">
        <lane id=":J23_1_0" index="0" speed="3.65" length="2.34" shape="98.87,1.13 98.59,-0.28 98.87,-1.13"/>
    </edge>
    <edge id=":J23_4" function="internal">
        <lane id=":J23_4_0" index="0" speed="3.65" length="2.34" shape="98.87,-1.13 99.72,-1.41 101.13,-1.13"/>
    </edge>
    <edge id=":J23_2" function="internal">
        <lane id=":J23_2_0" index="0" speed="13.89" length="0.10" shape="101.13,-1.13 101.13,-1.13"/>
    </edge>
    <edge id=":J23_3" function="internal">
        <lane id=":J23_3_0" index="0" speed="3.65" length="2.34" shape="101.13,-1.13 101.41,0.28 101.13,1.13"/>
    </edge>
    <edge id=":J23_5" function="internal">
        <lane id=":J23_5_0" index="0" speed="3.65" length="2.34" shape="101.13,1.13 100.28,1.41 98.87,1.13"/>
    </edge>
    <edge id=":J24_0" function="internal">
        <lane id=":J24_0_0" index="0" speed="13.89" length="0.10" shape="100.00,101.60 100.00,101.60"/>
    </edge>
    <edge id=":J24_1" function="internal">
        <lane id=":J24_1_0" index="0" speed="3.65" length="2.34" shape="100.00,101.60 98.80,100.80 98.40,100.00"/>
    </edge>
    <edge id=":J24_4" function="internal">
        <lane id=":J24_4_0" index="0" speed="3.65" length="2.34" shape="98.40,100.00 98.80,99.20 100.00,98.40"/>
    </edge>
    <edge id=":J24_2" function="internal">
        <lane id=":J24_2_0" index="0" speed="13.89" length="0.10" shape="100.00,98.40 100.00,98.40"/>
    </edge>
    <edge id=":J24_3" function="internal">
        <lane id=":J24_3_0" index="0" speed="3.65" length="2.34" shape="100.00,98.40 101.20,99.20 101.60,100.00"/>
    </edge>
    <edge id=":J24_5" function="internal">
        <lane id=":J24_5_0" index="0" speed="3.65" length="2.34" shape="101.60,100.00 101.20,100.80 100.00,101.60"/>
    </edge>
    <edge id=":J25_0" function="internal">
        <lane id=":J25_0_0" index="0" speed="13.89" length="0.10" shape="-300.00,-98.40 -300.00,-98.40"/>
    </edge>
    <edge id=":J25_1" function="internal">
        <lane id=":J25_1_0" index="0" speed="3.65" length="2.34" shape="-300.00,-98.40 -301.20,-99.20 -301.60,-100.00"/>
    </edge>
    <edge id=":J25_4" function="internal">
        <lane id=":J25_4_0" index="0" speed="3.65" length="2.34" shape="-301.60,-100.00 -301.20,-100.80 -300.00,-101.60"/>
    </edge>
    <edge id=":J25_2" function="internal">
        <lane id=":J25_2_0" index="0" speed="13.89" length="0.10" shape="-300.00,-101.60 -300.00,-101.60"/>
    </edge>
    <edge id=":J25_3" function="internal">
        <lane id=":J25_3_0" index="0" speed="3.65" length="2.34" shape="-300.00,-101.60 -298.80,-100.80 -298.40,-100.00"/>
    </edge>
    <edge id=":J25_5" function="internal">
        <lane id=":J25_5_0" index="0" speed="3.65" length="2.34" shape="-298.40,-100.00 -298.80,-99.20 -300.00,-98.40"/>
    </edge>
    <edge id=":J26_0" function="internal">
        <lane id=":J26_0_0" index="0" speed="3.65" length="4.67" shape="-400.00,-98.40 -401.20,-99.20 -401.60,-100.00 -401.20,-100.80 -400.00,-101.60"/>
    </edge>
    <edge id=":J27_0" function="internal">
        <lane id=":J27_0_0" index="0" speed="3.65" length="4.67" shape="298.40,-200.00 299.20,-201.20 300.00,-201.60 300.80,-201.20 301.60,-200.00"/>
    </edge>
    <edge id=":J29_0" function="internal">
        <lane id=":J29_0_0" index="0" speed="3.65" length="4.67" shape="201.60,200.00 200.80,201.20 200.00,201.60 199.20,201.20 198.40,200.00"/>
    </edge>
    <edge id=":J3_0" function="internal">
        <lane id=":J3_0_0" index="0" speed="6.51" length="9.03" shape="-1.60,7.20 -1.95,4.75 -3.00,3.00 -4.75,1.95 -7.20,1.60"/>
    </edge>
    <edge id=":J3_1" function="internal">
        <lane id=":J3_1_0" index="0" speed="13.89" length="14.40" shape="-1.60,7.20 -1.60,-7.20"/>
    </edge>
    <edge id=":J3_2" function="internal">
        <lane id=":J3_2_0" index="0" speed="3.65" length="1.44" shape="-1.60,7.20 -0.80,6.00"/>
    </edge>
    <edge id=":J3_8" function="internal">
        <lane id=":J3_8_0" index="0" speed="3.65" length="3.23" shape="-0.80,6.00 0.00,5.60 0.80,6.00 1.60,7.20"/>
    </edge>
    <edge id=":J3_3" function="internal">
        <lane id=":J3_3_0" index="0" speed="13.89" length="14.40" shape="1.60,-7.20 1.60,7.20"/>
    </edge>
    <edge id=":J3_4" function="internal">
        <lane id=":J3_4_0" index="0" speed="8.00" length="4.07" shape="1.60,-7.20 1.05,-3.35 0.96,-3.20"/>
    </edge>
    <edge id=":J3_5" function="internal">
        <lane id=":J3_5_0" index="0" speed="3.65" length="1.44" shape="1.60,-7.20 0.80,-6.00"/>
    </edge>
    <edge id=":J3_9" function="internal">
        <lane id=":J3_9_0" index="0" speed="8.00" length="10.13" shape="0.96,-3.20 -0.60,-0.60 -3.35,1.05 -7.20,1.60"/>
    </edge>
    <edge id=":J3_10" function="internal">
        <lane id=":J3_10_0" index="0" speed="3.65" length="3.23" shape="0.80,-6.00 0.00,-5.60 -0.80,-6.00 -1.60,-7.20"/>
    </edge>
    <edge id=":J3_6" function="internal">
        <lane id=":J3_6_0" index="0" speed="6.51" length="9.03" shape="-7.20,-1.60 -4.75,-1.95 -3.00,-3.00 -1.95,-4.75 -1.60,-7.20"/>
    </edge>
    <edge id=":J3_7" function="internal">
        <lane id=":J3_7_0" index="0" speed="8.00" length="14.19" shape="-7.20,-1.60 -3.35,-1.05 -0.60,0.60 1.05,3.35 1.60,7.20"/>
    </edge>
    <edge id=":J30_0" function="internal">
        <lane id=":J30_0_0" index="0" speed="3.90" length="2.58" shape="398.40,-96.80 398.30,-97.50 398.00,-98.00 397.50,-98.30 396.80,-98.40"/>
    </edge>
    <edge id=":J30_1" function="internal">
        <lane id=":J30_1_0" index="0" speed="3.65" length="1.30" shape="398.40,-96.80 399.12,-97.88"/>
    </edge>
    <edge id=":J30_4" function="internal">
        <lane id=":J30_4_0" index="0" speed="3.65" length="3.37" shape="399.12,-97.88 399.20,-98.00 400.00,-98.40 400.80,-98.00 401.60,-96.80"/>
    </edge>
    <edge id=":J30_2" function="internal">
        <lane id=":J30_2_0" index="0" speed="6.08" length="7.74" shape="396.80,-101.60 398.90,-101.30 400.40,-100.40 401.30,-98.90 401.60,-96.80"/>
    </edge>
    <edge id=":J30_3" function="internal">
        <lane id=":J30_3_0" index="0" speed="3.65" length="1.44" shape="396.80,-101.60 398.00,-100.80"/>
    </edge>
    <edge id=":J30_5" function="internal">
        <lane id=":J30_5_0" index="0" speed="3.65" length="3.23" shape="398.00,-100.80 398.40,-100.00 398.00,-99.20 396.80,-98.40"/>
    </edge>
    <edge id=":J32_0" function="internal">
        <lane id=":J32_0_0" index="0" speed="13.89" length="5.26" shape="198.40,108.81 198.17,107.35 197.58,106.46 196.81,105.61 196.03,104.25"/>
    </edge>
    <edge id=":J32_1" function="internal">
        <lane id=":J32_1_0" index="0" speed="3.65" length="1.44" shape="198.40,108.81 199.20,107.61"/>
    </edge>
    <edge id=":J32_4" function="internal">
        <lane id=":J32_4_0" index="0" speed="3.65" length="3.23" shape="199.20,107.61 200.00,107.21 200.80,107.61 201.60,108.81"/>
    </edge>
    <edge id=":J32_2" function="internal">
        <lane id=":J32_2_0" index="0" speed="13.89" length="6.58" shape="204.47,103.05 203.50,104.75 202.57,105.84 201.88,106.97 201.60,108.81"/>
    </edge>
    <edge id=":J32_3" function="internal">
        <lane id=":J32_3_0" index="0" speed="6.35" length="13.70" shape="204.47,103.05 202.27,107.18 200.12,108.76 198.04,107.78 196.03,104.25"/>
    </edge>
    <edge id=":J33_0" function="internal">
        <lane id=":J33_0_0" index="0" speed="4.23" length="1.28" shape="205.48,99.39 205.61,99.74 205.65,100.00 205.61,100.26 205.48,100.61"/>
    </edge>
    <edge id=":J34_0" function="internal">
        <lane id=":J34_0_0" index="0" speed="13.89" length="8.03" shape="201.60,90.28 201.87,92.56 202.59,94.01 203.59,95.41 204.71,97.52"/>
    </edge>
    <edge id=":J34_1" function="internal">
        <lane id=":J34_1_0" index="0" speed="3.65" length="0.81" shape="201.60,90.28 201.15,90.95"/>
    </edge>
    <edge id=":J34_4" function="internal">
        <lane id=":J34_4_0" index="0" speed="3.65" length="3.87" shape="201.15,90.95 200.80,91.48 200.00,91.88 199.20,91.48 198.40,90.28"/>
    </edge>
    <edge id=":J34_2" function="internal">
        <lane id=":J34_2_0" index="0" speed="5.22" length="4.64" shape="200.88,94.20 198.40,90.28"/>
    </edge>
    <edge id=":J34_3" function="internal">
        <lane id=":J34_3_0" index="0" speed="5.62" length="5.48" shape="200.88,94.20 201.97,94.24 202.97,94.81 203.88,95.90 204.71,97.52"/>
    </edge>
    <edge id=":J35_0" function="internal">
        <lane id=":J35_0_0" index="0" speed="7.67" length="7.09" shape="194.26,92.00 195.76,93.23 197.33,94.02 198.97,94.35 200.69,94.24"/>
    </edge>
    <edge id=":J35_1" function="internal">
        <lane id=":J35_1_0" index="0" speed="3.65" length="0.81" shape="194.26,92.00 194.42,92.79"/>
    </edge>
    <edge id=":J35_4" function="internal">
        <lane id=":J35_4_0" index="0" speed="3.65" length="3.87" shape="194.42,92.79 194.54,93.41 194.26,94.26 193.41,94.54 192.00,94.26"/>
    </edge>
    <edge id=":J35_2" function="internal">
        <lane id=":J35_2_0" index="0" speed="5.22" length="4.63" shape="196.52,95.27 192.00,94.26"/>
    </edge>
    <edge id=":J35_3" function="internal">
        <lane id=":J35_3_0" index="0" speed="7.07" length="4.36" shape="196.52,95.27 197.27,94.78 198.44,94.51 199.70,94.36 200.69,94.24"/>
    </edge>
    <edge id=":J36_0" function="internal">
        <lane id=":J36_0_0" index="0" speed="6.61" length="6.54" shape="195.95,104.07 195.21,102.99 194.02,102.22 192.38,101.75 190.28,101.60"/>
    </edge>
    <edge id=":J36_1" function="internal">
        <lane id=":J36_1_0" index="0" speed="8.56" length="9.02" shape="195.95,104.07 195.22,101.69 195.05,99.45 195.45,97.37 196.41,95.43"/>
    </edge>
    <edge id=":J36_2" function="internal">
        <lane id=":J36_2_0" index="0" speed="7.66" length="7.10" shape="190.28,98.40 192.21,98.21 193.88,97.66 195.28,96.73 196.41,95.43"/>
    </edge>
    <edge id=":J36_3" function="internal">
        <lane id=":J36_3_0" index="0" speed="3.65" length="1.44" shape="190.28,98.40 191.48,99.20"/>
    </edge>
    <edge id=":J36_4" function="internal">
        <lane id=":J36_4_0" index="0" speed="3.65" length="3.23" shape="191.48,99.20 191.88,100.00 191.48,100.80 190.28,101.60"/>
    </edge>
    <edge id=":J41_0" function="internal">
        <lane id=":J41_0_0" index="0" speed="13.89" length="6.63" shape="-1.60,-90.28 -1.83,-92.16 -2.42,-93.36 -3.25,-94.51 -4.18,-96.25"/>
    </edge>
    <edge id=":J41_1" function="internal">
        <lane id=":J41_1_0" index="0" speed="3.65" length="0.81" shape="-1.60,-90.28 -1.15,-90.95"/>
    </edge>
    <edge id=":J41_4" function="internal">
        <lane id=":J41_4_0" index="0" speed="3.65" length="3.87" shape="-1.15,-90.95 -0.80,-91.48 0.00,-91.88 0.80,-91.48 1.60,-90.28"/>
    </edge>
    <edge id=":J41_2" function="internal">
        <lane id=":J41_2_0" index="0" speed="5.22" length="4.64" shape="-0.88,-94.20 1.60,-90.28"/>
    </edge>
    <edge id=":J41_3" function="internal">
        <lane id=":J41_3_0" index="0" speed="5.05" length="4.26" shape="-0.88,-94.20 -1.94,-94.16 -2.84,-94.49 -3.59,-95.19 -4.18,-96.25"/>
    </edge>
    <edge id=":J42_0" function="internal">
        <lane id=":J42_0_0" index="0" speed="7.67" length="7.09" shape="5.74,-92.00 4.24,-93.23 2.67,-94.02 1.03,-94.35 -0.69,-94.24"/>
    </edge>
    <edge id=":J42_1" function="internal">
        <lane id=":J42_1_0" index="0" speed="3.65" length="0.81" shape="5.74,-92.00 5.58,-92.79"/>
    </edge>
    <edge id=":J42_4" function="internal">
        <lane id=":J42_4_0" index="0" speed="3.65" length="3.87" shape="5.58,-92.79 5.46,-93.41 5.74,-94.26 6.59,-94.54 8.00,-94.26"/>
    </edge>
    <edge id=":J42_2" function="internal">
        <lane id=":J42_2_0" index="0" speed="5.22" length="4.63" shape="3.48,-95.27 8.00,-94.26"/>
    </edge>
    <edge id=":J42_3" function="internal">
        <lane id=":J42_3_0" index="0" speed="7.07" length="4.36" shape="3.48,-95.27 2.73,-94.78 1.56,-94.51 0.30,-94.36 -0.69,-94.24"/>
    </edge>
    <edge id=":J43_0" function="internal">
        <lane id=":J43_0_0" index="0" speed="7.66" length="7.10" shape="9.72,-98.40 7.79,-98.21 6.12,-97.66 4.72,-96.73 3.59,-95.43"/>
    </edge>
    <edge id=":J43_1" function="internal">
        <lane id=":J43_1_0" index="0" speed="3.65" length="1.44" shape="9.72,-98.40 8.52,-99.20"/>
    </edge>
    <edge id=":J43_4" function="internal">