<?xml version="1.0" encoding="UTF-8"?>

<!-- generated on 2025-09-23 14:13:01 by Eclipse SUMO netedit Version 1.24.0
-->

<additional xmlns:xsi="http://www.w3.org/2001/XMLSchema-instance" xsi:noNamespaceSchemaLocation="http://sumo.dlr.de/xsd/additional_file.xsd">
    <!-- Shapes -->
    <poly id="po_0" type="Terrain" color="red" fill="0" layer="0.00" shape="-562.392590,265.211596 -570.105897,-247.372736 549.726083,-242.464268 546.220035,279.937001 -563.093799,264.510386"/>
    <poly id="po_1" type="Roadside" color="198,198,198" fill="1" layer="0.00" shape="-403.537360,-93.013916 -7.305469,-93.486747 -5.414148,-89.704103 -6.832639,-6.485950 -94.779097,-7.431610 -94.456672,-93.440779 -105.001968,-93.355736 -105.712457,-7.386569 -110.685880,-4.544613 -193.813091,-4.899857 -194.168335,-92.645247 -211.930560,-93.000491 -207.312381,44.834372 -4.467776,45.189616 -4.467776,8.954678 -9.085955,4.336499 -90.436944,4.336499 -95.055122,7.178455 -95.448734,45.045543 -105.271167,44.951996 -104.522791,8.000940 -107.796935,4.913889 -194.263856,4.252153 -195.587329,6.678521 -196.249066,44.618088 -196.205558,44.809530 -207.341892,44.734087 -304.227519,43.664448 -309.133120,51.022850 -303.001118,57.154851 -253.945105,55.928451 -251.492304,147.908476 -250.301706,150.034544 -246.985041,150.884971 -49.393144,151.745255 -47.832804,149.144688 -47.832804,105.455157 -149.254928,104.935044 -148.734815,92.972434 -54.594279,95.573001 -55.114392,144.463667 -147.174475,143.943553 -147.738727,104.810533 -155.084877,105.308577 -154.213300,144.529550 -157.077054,145.525638 -246.226949,145.525638 -244.805971,54.227804 -205.018588,52.806826 -205.373833,101.830566 -201.821388,105.027766 -154.929115,106.448744 -153.863381,94.370432 -195.782231,95.436165 -195.071742,52.451582 -158.481560,51.741093 -155.284359,55.293537 -154.218626,95.080921 -148.829664,95.885002 -148.744621,53.788863 -147.809151,52.343136 -146.703596,51.067496 -103.757029,50.727325 -104.097200,94.439276 -93.694931,93.966446 -94.167761,51.884539 -59.178310,51.884539 -56.814158,55.667182 -56.341328,93.966446 -57.286988,95.384937 -57.286988,95.555023 -49.633145,95.640065 -48.922656,54.076460 -45.725455,51.589748 -4.872339,52.300237 -4.517094,91.021887 -9.135273,95.284821 -49.277900,94.929576 -47.745341,106.176715 85.171081,104.575312 145.757482,104.575312 144.956781,153.418094 149.760989,155.820198 154.832097,152.884293 154.832097,146.211782 150.828590,143.008976 151.629292,104.842213 191.130557,104.575312 194.867164,108.578819 193.907992,201.835311 196.770501,206.053745 201.139593,206.053745 203.248810,205.903087 204.906051,202.136628 204.906051,197.014244 203.248810,194.905028 204.002101,109.783064 209.036800,102.860354 208.407462,94.678969 204.002101,88.385596 195.516315,89.578438 195.125546,-48.362998 154.485576,-48.362998 152.531732,-44.846078 152.140963,44.640010 195.450144,89.584399 190.004116,95.030427 150.104766,55.616253 150.851833,96.206847 189.699273,96.331358 190.695361,96.082336 189.958386,94.971828 190.008862,95.022304 195.433320,89.602892 203.983604,88.379238 205.496125,-47.884303 286.820691,-48.471484 292.692500,-44.654807 298.564310,-47.590712 298.270720,-53.168932 293.866862,-55.224065 204.028173,-55.224065 152.062656,-54.343294 151.181885,-94.271600 9.964859,-96.033143 51.067528,-55.517656 144.722894,-55.517656 100.097139,-6.194453 56.939337,-49.352255 50.480347,-42.306084 51.067528,41.367206 89.527882,4.081214 94.518920,7.897890 56.352157,44.890292 138.851084,46.064654 138.263903,52.523645 143.842122,52.817235 145.016484,94.507084 9.377678,96.268627 4.093049,89.809637 4.680230,51.936464 3.799459,-88.693381 46.076489,-46.709941 44.021356,41.660796 40.791861,45.183882 4.623974,46.383526 4.789698,51.520976 138.282229,52.045959 138.693116,46.019625 141.021472,46.430511 99.932833,5.478834 97.467515,7.807191 94.180424,8.081115 89.547856,4.085068 88.642322,-1.008565 90.566583,-3.159210 51.524121,-43.525145 56.746661,-49.241323 56.145082,-55.457637 144.577160,-55.056584 144.376634,-94.560257 151.118833,-94.339665 192.978662,-95.731792 194.994847,-94.051639 195.954935,-92.611507 195.765254,-55.073730 203.949543,-55.231907 204.450545,-94.370750 207.914181,-96.193716 393.541013,-94.760578 394.685262,102.622480 397.468478,104.555269 401.565991,105.019138 404.349206,102.467857 404.890387,99.452706 404.840482,-3.905670 404.418044,-17.159682 404.137403,-93.774657 403.863479,-101.992385 399.617653,-104.731627 306.757328,-104.320741 307.813168,-200.040592 305.343528,-203.950856 296.802689,-204.774069 294.435951,-200.863806 295.010627,-108.306973 289.843435,-105.077478 152.266931,-105.077478 152.266931,-140.924876 152.266931,-145.446170 154.850528,-148.352716 154.850528,-152.228110 151.621032,-156.103505 145.807940,-156.103505 144.516142,-149.644514 144.516142,-105.400427 7.585538,-105.723377 -2.748847,-110.890569 -9.530787,-104.108629 -402.560375,-106.692225 -405.789871,-102.493881 -405.789871,-95.388991 -403.515874,-93.001128"/>
    <poly id="po_10" type="Wood" color="180,150,88" fill="1" layer="0.00" shape="214.438893,192.632205 212.596068,110.626473 385.821660,107.862235 383.057422,190.789380 213.517481,192.632205"/>
    <poly id="po_11" type="Wood" color="180,150,88" fill="1" layer="0.00" shape="-402.711664,-114.810725 -196.107389,-113.974271 -197.780298,-229.404999 -408.566846,-222.713363 -402.629295,-114.763848"/>
    <poly id="po_12" type="Wood" color="180,150,88" fill="1" layer="0.00" shape="205.572227,-56.819748 296.988655,-55.753667 295.656054,-89.601732 207.437869,-92.799975 205.589728,-56.801383"/>
    <poly id="po_13" type="Wood" color="180,150,88" fill="1" layer="0.00" shape="151.540877,95.653504 188.534455,95.568461 188.704540,94.718034 150.690450,57.214200 151.455835,95.568461 151.625920,95.568461"/>
    <poly id="po_14" type="Wood" color="180,150,88" fill="1" layer="0.00" shape="153.822811,203.286630 155.899624,107.753229 191.205446,109.137772 191.205446,203.286630 153.130540,201.902088"/>
    <poly id="po_16" type="Residential" color="185,185,185" fill="1" layer="0.00" shape="-443.173657,33.488052 -212.035235,40.925675 -215.467984,-86.086032 -408.274044,-87.802407 -415.711667,-221.679612 -554.662825,-228.424813 -550.615703,34.638058 -438.645353,33.289018"/>
    <poly id="po_17" type="Residential" color="185,185,185" fill="1" layer="0.00" shape="-188.064628,-111.382595 -189.784012,-237.327425 146.785278,-235.608042 139.477898,-111.382595 -187.634782,-113.101979"/>
    <poly id="po_18" type="Residential" color="185,185,185" fill="1" layer="0.00" shape="153.662811,-107.943829 163.549265,-235.608042 292.932862,-231.309584 291.213478,-110.952750 153.662811,-110.522904"/>
    <poly id="po_19" type="Residential" color="185,185,185" fill="1" layer="0.00" shape="307.492341,-107.500206 310.818806,-230.579401 544.336631,-231.909987 539.014287,269.720896 399.968061,269.720896 396.641596,116.038225 411.278041,107.389417 412.608627,-94.194347 407.286284,-105.504327 398.637475,-110.826671 306.827048,-108.165499"/>
    <poly id="po_2" type="Wood" color="180,150,88" fill="1" layer="0.00" shape="-147.711230,91.430395 -147.177429,54.865034 -145.842927,53.530532 -106.074761,52.729831 -106.074761,92.231096 -147.711230,91.163495"/>
    <poly id="po_20" type="Residential" color="185,185,185" fill="1" layer="0.00" shape="213.168218,105.235753 386.296156,102.054925 390.385792,-90.612387 299.050581,-89.249174 301.777005,-46.080791 294.960945,-40.173539 208.624178,-41.991155 213.168218,105.235753"/>
    <poly id="po_21" type="Residential" color="185,185,185" fill="1" layer="0.00" shape="155.004502,43.891208 192.265633,83.878763 192.265633,-42.899963 158.185330,-44.263175 155.004502,44.345612"/>
    <poly id="po_22" type="Residential" color="185,185,185" fill="1" layer="0.00" shape="10.504018,94.330056 143.189997,92.058036 141.372381,55.705713 5.959978,53.433693 6.414382,88.877208 10.504018,93.875652"/>
    <poly id="po_23" type="Residential" color="185,185,185" fill="1" layer="0.00" shape="-194.432202,43.891208 -108.095435,42.982400 -106.732223,9.810905 -193.068990,7.993289 -193.977798,43.891208"/>
    <poly id="po_24" type="Residential" color="185,185,185" fill="1" layer="0.00" shape="-94.145521,42.679393 -6.622853,42.989757 -6.002125,11.022257 -10.036858,7.918617 -89.179696,6.366796 -93.214429,9.780801 -93.835157,42.679393"/>
    <poly id="po_25" type="Residential" color="185,185,185" fill="1" layer="0.00" shape="-191.638885,-7.478031 -111.913697,-8.027860 -110.264210,-86.103561 -190.539227,-89.952363 -191.089056,-6.378373"/>
    <poly id="po_26" type="Residential" color="185,185,185" fill="1" layer="0.00" shape="-93.219515,-9.127517 -11.295011,-10.227175 -7.996038,-87.753048 -92.119857,-90.502192 -92.669686,-9.127517"/>
    <poly id="po_27" type="Residential" color="185,185,185" fill="1" layer="0.00" shape="-243.322800,141.525597 -241.123485,61.250580 -209.233409,58.501435 -209.233409,112.384666 -161.948125,111.834837 -161.398297,140.425939 -243.872629,140.425939"/>
    <poly id="po_28" type="Residential" color="185,185,185" fill="1" layer="0.00" shape="-142.154286,139.876110 -142.154286,111.285008 -60.229782,108.535864 -59.130124,140.425939 -142.704115,138.776452"/>
    <poly id="po_29" type="Residential" color="185,185,185" fill="1" layer="0.00" shape="7.799449,41.775353 40.020826,40.536069 42.086299,-42.082846 5.426819,-82.225030 9.854343,41.745658"/>
    <poly id="po_3" type="Wood" color="180,150,88" fill="1" layer="0.00" shape="-194.926931,94.199093 -155.382073,93.178581 -156.572671,56.270046 -159.379080,53.633722 -193.651291,53.973893 -194.841889,94.114050"/>
    <poly id="po_30" type="Residential" color="185,185,185" fill="1" layer="0.00" shape="51.420424,-57.728693 142.781103,-57.004758 142.781103,-91.898456 11.603963,-95.228560 51.565211,-57.728693"/>
    <poly id="po_31" type="Residential" color="185,185,185" fill="1" layer="0.00" shape="153.495350,-56.136035 193.890960,-56.570396 193.890960,-92.188030 153.350563,-92.622392 154.219286,-56.136035"/>
    <poly id="po_32" type="Residential" color="185,185,185" fill="1" layer="0.00" shape="-467.943689,90.955967 -464.407868,36.740043 -549.267575,39.097257 -551.624789,257.139560 390.082238,264.211202 386.546417,207.638064 210.933967,197.030601 205.040932,217.066920 137.860331,214.709706 143.753366,158.136568 143.753366,158.136568 137.860331,112.170894 -42.466547,110.992287 -42.466547,161.672389 -246.365565,159.315175 -256.973028,154.600747 -260.508849,65.026612 -307.653131,65.026612 -321.796416,42.633078 -373.655125,46.168899 -464.407868,39.097257 -466.765082,88.598753"/>
    <poly id="po_4" type="Wood" color="180,150,88" fill="1" layer="0.00" shape="-92.558985,93.448527 -93.176395,53.111070 -59.939154,53.111070 -58.189825,56.403924 -57.881120,93.448527 -59.218842,94.580446 -92.456083,93.551429"/>
    <poly id="po_5" type="Wood" color="180,150,88" fill="1" layer="0.00" shape="-48.517068,93.551429 -10.134743,93.963036 -5.709971,90.567280 -5.504167,53.728481 -45.018411,53.111070 -47.796756,55.066202 -48.414166,93.654331"/>
    <poly id="po_6" type="Wood" color="180,150,88" fill="1" layer="0.00" shape="-85.249102,-21.635190"/>
    <poly id="po_7" type="Wood" color="180,150,88" fill="1" layer="0.00" shape="51.764059,39.251392 87.457732,4.159298 86.856153,0.549825 88.861416,-2.859121 51.979479,-42.337370 51.384180,-41.486943 51.995424,39.125417"/>
    <poly id="po_8" type="Wood" color="180,150,88" fill="1" layer="0.00" shape="59.451030,43.702984 137.544989,45.070654 100.207597,7.459728 98.156092,10.058301 94.736917,9.374466 59.377224,43.704457"/>
    <poly id="po_9" type="Wood" color="180,150,88" fill="1" layer="0.00" shape="99.624453,-7.655836 58.861476,-48.661449 136.990516,-48.176176 99.624453,-7.655836"/>
</additional>
