<?xml version="1.0" encoding="UTF-8"?>

<!-- generated on 2025-09-21 17:59:57 by Eclipse SUMO netedit Version 1.24.0
-->

<additional xmlns:xsi="http://www.w3.org/2001/XMLSchema-instance" xsi:noNamespaceSchemaLocation="http://sumo.dlr.de/xsd/additional_file.xsd">
    <!-- Shapes -->
    <poly id="po_0" type="Terrain" color="red" fill="0" layer="0.00" shape="-152.285113,51.265654 -154.812813,-73.758275 128.678459,-72.202767 126.345198,49.515708 -152.673990,50.876777"/>
    <poly id="po_1" type="Roadside" color="198,198,198" fill="1" layer="0.00" shape="-127.345200,5.195104 -32.198029,5.666713 42.787847,5.902518 46.089111,4.841397 47.268135,2.011741 46.914428,-0.817914 46.089111,-1.879035 48.093451,-39.371973 48.211353,-42.319531 47.621842,-44.323870 45.617502,-46.681917 43.731065,-46.446112 41.844628,-45.620796 -30.783201,-45.502894 -33.612856,-46.681917 -36.914121,-43.852261 -37.857340,-40.668898 -36.678317,-38.428754 -36.088805,-4.944496 -29.132568,-4.944496 -29.722080,-37.839243 40.193995,-37.957145 39.132875,-2.586449 -28.896764,-2.940156 -29.132568,-4.944496 -36.088805,-4.826593 -36.088805,-2.822254 -126.401982,-3.765472 -126.637786,5.077201"/>
    <poly id="po_3" type="Wood" color="180,150,88" fill="1" layer="0.00" shape="-106.613182,-7.871339 -52.003856,-5.762871 -51.793009,-30.221102 -103.239633,-32.540417 -106.613182,-7.449646"/>
    <poly id="po_4" type="Residential" color="185,185,185" fill="1" layer="0.00" shape="-27.545625,45.894600 -27.123931,10.472334 39.292817,9.207253 38.449429,45.262059 -27.545625,45.894600"/>
</additional>
